ERCOFTAC SIG15 Case 8.2
Flow through an asymmetric plane diffuser

* URL: 
http://www.ercoftac.org/fileadmin/user_upload/bigfiles/sig15/database/8.2/

* Mesh data is converted from Code_Saturne test case:
http://cfd.mace.manchester.ac.uk/twiki/bin/view/Saturne/WebHome
